<routes>
            <vType accel="1.0" decel="4.5" id="standard_car" length="5.0" minGap="2.5" maxSpeed="25" sigma="0.5" />

            <route id="W_N" edges="W2TL TL2N"/>
            <route id="W_E" edges="W2TL TL2E"/>
            <route id="W_S" edges="W2TL TL2S"/>
            <route id="N_W" edges="N2TL TL2W"/>
            <route id="N_E" edges="N2TL TL2E"/>
            <route id="N_S" edges="N2TL TL2S"/>
            <route id="E_W" edges="E2TL TL2W"/>
            <route id="E_N" edges="E2TL TL2N"/>
            <route id="E_S" edges="E2TL TL2S"/>
            <route id="S_W" edges="S2TL TL2W"/>
            <route id="S_N" edges="S2TL TL2N"/>
            <route id="S_E" edges="S2TL TL2E"/>
    <vehicle id="W_S_0" type="standard_car" route="W_S" depart="26.0" departLane="random" departSpeed="10" />
    <vehicle id="S_N_1" type="standard_car" route="S_N" depart="30.0" departLane="random" departSpeed="10" />
    <vehicle id="E_W_2" type="standard_car" route="E_W" depart="53.0" departLane="random" departSpeed="10" />
    <vehicle id="E_W_3" type="standard_car" route="E_W" depart="68.0" departLane="random" departSpeed="10" />
    <vehicle id="S_E_4" type="standard_car" route="S_E" depart="71.0" departLane="random" departSpeed="10" />
    <vehicle id="S_N_5" type="standard_car" route="S_N" depart="76.0" departLane="random" departSpeed="10" />
    <vehicle id="E_W_6" type="standard_car" route="E_W" depart="86.0" departLane="random" departSpeed="10" />
    <vehicle id="N_S_7" type="standard_car" route="N_S" depart="87.0" departLane="random" departSpeed="10" />
    <vehicle id="W_E_8" type="standard_car" route="W_E" depart="93.0" departLane="random" departSpeed="10" />
    <vehicle id="S_N_9" type="standard_car" route="S_N" depart="93.0" departLane="random" departSpeed="10" />
    <vehicle id="W_E_10" type="standard_car" route="W_E" depart="98.0" departLane="random" departSpeed="10" />
    <vehicle id="E_W_11" type="standard_car" route="E_W" depart="121.0" departLane="random" departSpeed="10" />
    <vehicle id="S_E_12" type="standard_car" route="S_E" depart="124.0" departLane="random" departSpeed="10" />
    <vehicle id="N_S_13" type="standard_car" route="N_S" depart="127.0" departLane="random" departSpeed="10" />
    <vehicle id="N_S_14" type="standard_car" route="N_S" depart="131.0" departLane="random" departSpeed="10" />
    <vehicle id="S_N_15" type="standard_car" route="S_N" depart="146.0" departLane="random" departSpeed="10" />
    <vehicle id="S_N_16" type="standard_car" route="S_N" depart="151.0" departLane="random" departSpeed="10" />
    <vehicle id="W_E_17" type="standard_car" route="W_E" depart="153.0" departLane="random" departSpeed="10" />
    <vehicle id="S_N_18" type="standard_car" route="S_N" depart="155.0" departLane="random" departSpeed="10" />
    <vehicle id="S_N_19" type="standard_car" route="S_N" depart="160.0" departLane="random" departSpeed="10" />
    <vehicle id="W_E_20" type="standard_car" route="W_E" depart="160.0" departLane="random" departSpeed="10" />
    <vehicle id="N_S_21" type="standard_car" route="N_S" depart="162.0" departLane="random" departSpeed="10" />
    <vehicle id="N_S_22" type="standard_car" route="N_S" depart="170.0" departLane="random" departSpeed="10" />
    <vehicle id="N_W_23" type="standard_car" route="N_W" depart="173.0" departLane="random" departSpeed="10" />
    <vehicle id="S_W_24" type="standard_car" route="S_W" depart="179.0" departLane="random" departSpeed="10" />
    <vehicle id="S_N_25" type="standard_car" route="S_N" depart="183.0" departLane="random" departSpeed="10" />
    <vehicle id="W_E_26" type="standard_car" route="W_E" depart="186.0" departLane="random" departSpeed="10" />
    <vehicle id="S_N_27" type="standard_car" route="S_N" depart="186.0" departLane="random" departSpeed="10" />
    <vehicle id="N_E_28" type="standard_car" route="N_E" depart="190.0" departLane="random" departSpeed="10" />
    <vehicle id="N_S_29" type="standard_car" route="N_S" depart="190.0" departLane="random" departSpeed="10" />
    <vehicle id="W_E_30" type="standard_car" route="W_E" depart="192.0" departLane="random" departSpeed="10" />
    <vehicle id="E_S_31" type="standard_car" route="E_S" depart="196.0" departLane="random" departSpeed="10" />
    <vehicle id="W_S_32" type="standard_car" route="W_S" depart="197.0" departLane="random" departSpeed="10" />
    <vehicle id="E_S_33" type="standard_car" route="E_S" depart="200.0" departLane="random" departSpeed="10" />
    <vehicle id="W_N_34" type="standard_car" route="W_N" depart="203.0" departLane="random" departSpeed="10" />
    <vehicle id="W_E_35" type="standard_car" route="W_E" depart="210.0" departLane="random" departSpeed="10" />
    <vehicle id="W_E_36" type="standard_car" route="W_E" depart="212.0" departLane="random" departSpeed="10" />
    <vehicle id="S_E_37" type="standard_car" route="S_E" depart="212.0" departLane="random" departSpeed="10" />
    <vehicle id="E_W_38" type="standard_car" route="E_W" depart="213.0" departLane="random" departSpeed="10" />
    <vehicle id="N_E_39" type="standard_car" route="N_E" depart="218.0" departLane="random" departSpeed="10" />
    <vehicle id="N_S_40" type="standard_car" route="N_S" depart="219.0" departLane="random" departSpeed="10" />
    <vehicle id="W_S_41" type="standard_car" route="W_S" depart="220.0" departLane="random" departSpeed="10" />
    <vehicle id="N_S_42" type="standard_car" route="N_S" depart="223.0" departLane="random" departSpeed="10" />
    <vehicle id="N_S_43" type="standard_car" route="N_S" depart="224.0" departLane="random" departSpeed="10" />
    <vehicle id="W_E_44" type="standard_car" route="W_E" depart="228.0" departLane="random" departSpeed="10" />
    <vehicle id="E_S_45" type="standard_car" route="E_S" depart="228.0" departLane="random" departSpeed="10" />
    <vehicle id="S_N_46" type="standard_car" route="S_N" depart="229.0" departLane="random" departSpeed="10" />
    <vehicle id="N_S_47" type="standard_car" route="N_S" depart="232.0" departLane="random" departSpeed="10" />
    <vehicle id="W_E_48" type="standard_car" route="W_E" depart="233.0" departLane="random" departSpeed="10" />
    <vehicle id="S_N_49" type="standard_car" route="S_N" depart="241.0" departLane="random" departSpeed="10" />
    <vehicle id="N_S_50" type="standard_car" route="N_S" depart="242.0" departLane="random" departSpeed="10" />
    <vehicle id="S_W_51" type="standard_car" route="S_W" depart="242.0" departLane="random" departSpeed="10" />
    <vehicle id="N_W_52" type="standard_car" route="N_W" depart="245.0" departLane="random" departSpeed="10" />
    <vehicle id="E_W_53" type="standard_car" route="E_W" depart="246.0" departLane="random" departSpeed="10" />
    <vehicle id="N_E_54" type="standard_car" route="N_E" depart="250.0" departLane="random" departSpeed="10" />
    <vehicle id="W_E_55" type="standard_car" route="W_E" depart="253.0" departLane="random" departSpeed="10" />
    <vehicle id="N_S_56" type="standard_car" route="N_S" depart="254.0" departLane="random" departSpeed="10" />
    <vehicle id="W_E_57" type="standard_car" route="W_E" depart="260.0" departLane="random" departSpeed="10" />
    <vehicle id="S_N_58" type="standard_car" route="S_N" depart="261.0" departLane="random" departSpeed="10" />
    <vehicle id="E_S_59" type="standard_car" route="E_S" depart="269.0" departLane="random" departSpeed="10" />
    <vehicle id="S_N_60" type="standard_car" route="S_N" depart="273.0" departLane="random" departSpeed="10" />
    <vehicle id="S_N_61" type="standard_car" route="S_N" depart="277.0" departLane="random" departSpeed="10" />
    <vehicle id="S_E_62" type="standard_car" route="S_E" depart="278.0" departLane="random" departSpeed="10" />
    <vehicle id="S_W_63" type="standard_car" route="S_W" depart="279.0" departLane="random" departSpeed="10" />
    <vehicle id="W_E_64" type="standard_car" route="W_E" depart="281.0" departLane="random" departSpeed="10" />
    <vehicle id="E_W_65" type="standard_car" route="E_W" depart="285.0" departLane="random" departSpeed="10" />
    <vehicle id="W_E_66" type="standard_car" route="W_E" depart="286.0" departLane="random" departSpeed="10" />
    <vehicle id="W_E_67" type="standard_car" route="W_E" depart="287.0" departLane="random" departSpeed="10" />
    <vehicle id="W_S_68" type="standard_car" route="W_S" depart="288.0" departLane="random" departSpeed="10" />
    <vehicle id="W_E_69" type="standard_car" route="W_E" depart="293.0" departLane="random" departSpeed="10" />
    <vehicle id="N_E_70" type="standard_car" route="N_E" depart="293.0" departLane="random" departSpeed="10" />
    <vehicle id="N_S_71" type="standard_car" route="N_S" depart="296.0" departLane="random" departSpeed="10" />
    <vehicle id="E_W_72" type="standard_car" route="E_W" depart="298.0" departLane="random" departSpeed="10" />
    <vehicle id="W_E_73" type="standard_car" route="W_E" depart="302.0" departLane="random" departSpeed="10" />
    <vehicle id="E_W_74" type="standard_car" route="E_W" depart="304.0" departLane="random" departSpeed="10" />
    <vehicle id="N_S_75" type="standard_car" route="N_S" depart="305.0" departLane="random" departSpeed="10" />
    <vehicle id="E_W_76" type="standard_car" route="E_W" depart="306.0" departLane="random" departSpeed="10" />
    <vehicle id="W_E_77" type="standard_car" route="W_E" depart="308.0" departLane="random" departSpeed="10" />
    <vehicle id="S_W_78" type="standard_car" route="S_W" depart="308.0" departLane="random" departSpeed="10" />
    <vehicle id="E_W_79" type="standard_car" route="E_W" depart="309.0" departLane="random" departSpeed="10" />
    <vehicle id="N_S_80" type="standard_car" route="N_S" depart="313.0" departLane="random" departSpeed="10" />
    <vehicle id="N_S_81" type="standard_car" route="N_S" depart="316.0" departLane="random" departSpeed="10" />
    <vehicle id="E_W_82" type="standard_car" route="E_W" depart="323.0" departLane="random" departSpeed="10" />
    <vehicle id="N_W_83" type="standard_car" route="N_W" depart="324.0" departLane="random" departSpeed="10" />
    <vehicle id="W_E_84" type="standard_car" route="W_E" depart="326.0" departLane="random" departSpeed="10" />
    <vehicle id="N_E_85" type="standard_car" route="N_E" depart="328.0" departLane="random" departSpeed="10" />
    <vehicle id="W_E_86" type="standard_car" route="W_E" depart="328.0" departLane="random" departSpeed="10" />
    <vehicle id="E_W_87" type="standard_car" route="E_W" depart="328.0" departLane="random" departSpeed="10" />
    <vehicle id="S_N_88" type="standard_car" route="S_N" depart="336.0" departLane="random" departSpeed="10" />
    <vehicle id="N_S_89" type="standard_car" route="N_S" depart="337.0" departLane="random" departSpeed="10" />
    <vehicle id="N_S_90" type="standard_car" route="N_S" depart="339.0" departLane="random" departSpeed="10" />
    <vehicle id="S_N_91" type="standard_car" route="S_N" depart="340.0" departLane="random" departSpeed="10" />
    <vehicle id="N_S_92" type="standard_car" route="N_S" depart="343.0" departLane="random" departSpeed="10" />
    <vehicle id="N_S_93" type="standard_car" route="N_S" depart="349.0" departLane="random" departSpeed="10" />
    <vehicle id="S_N_94" type="standard_car" route="S_N" depart="351.0" departLane="random" departSpeed="10" />
    <vehicle id="S_W_95" type="standard_car" route="S_W" depart="351.0" departLane="random" departSpeed="10" />
    <vehicle id="S_N_96" type="standard_car" route="S_N" depart="352.0" departLane="random" departSpeed="10" />
    <vehicle id="E_W_97" type="standard_car" route="E_W" depart="356.0" departLane="random" departSpeed="10" />
    <vehicle id="N_S_98" type="standard_car" route="N_S" depart="364.0" departLane="random" departSpeed="10" />
    <vehicle id="W_E_99" type="standard_car" route="W_E" depart="364.0" departLane="random" departSpeed="10" />
    <vehicle id="N_S_100" type="standard_car" route="N_S" depart="364.0" departLane="random" departSpeed="10" />
    <vehicle id="E_N_101" type="standard_car" route="E_N" depart="365.0" departLane="random" departSpeed="10" />
    <vehicle id="S_N_102" type="standard_car" route="S_N" depart="368.0" departLane="random" departSpeed="10" />
    <vehicle id="E_N_103" type="standard_car" route="E_N" depart="370.0" departLane="random" departSpeed="10" />
    <vehicle id="N_S_104" type="standard_car" route="N_S" depart="370.0" departLane="random" departSpeed="10" />
    <vehicle id="N_S_105" type="standard_car" route="N_S" depart="371.0" departLane="random" departSpeed="10" />
    <vehicle id="N_S_106" type="standard_car" route="N_S" depart="378.0" departLane="random" departSpeed="10" />
    <vehicle id="S_N_107" type="standard_car" route="S_N" depart="380.0" departLane="random" departSpeed="10" />
    <vehicle id="S_W_108" type="standard_car" route="S_W" depart="381.0" departLane="random" departSpeed="10" />
    <vehicle id="W_E_109" type="standard_car" route="W_E" depart="390.0" departLane="random" departSpeed="10" />
    <vehicle id="S_N_110" type="standard_car" route="S_N" depart="391.0" departLane="random" departSpeed="10" />
    <vehicle id="E_W_111" type="standard_car" route="E_W" depart="395.0" departLane="random" departSpeed="10" />
    <vehicle id="S_E_112" type="standard_car" route="S_E" depart="400.0" departLane="random" departSpeed="10" />
    <vehicle id="S_W_113" type="standard_car" route="S_W" depart="406.0" departLane="random" departSpeed="10" />
    <vehicle id="E_N_114" type="standard_car" route="E_N" depart="406.0" departLane="random" departSpeed="10" />
    <vehicle id="N_S_115" type="standard_car" route="N_S" depart="408.0" departLane="random" departSpeed="10" />
    <vehicle id="E_W_116" type="standard_car" route="E_W" depart="414.0" departLane="random" departSpeed="10" />
    <vehicle id="W_E_117" type="standard_car" route="W_E" depart="416.0" departLane="random" departSpeed="10" />
    <vehicle id="S_E_118" type="standard_car" route="S_E" depart="416.0" departLane="random" departSpeed="10" />
    <vehicle id="E_W_119" type="standard_car" route="E_W" depart="416.0" departLane="random" departSpeed="10" />
    <vehicle id="E_N_120" type="standard_car" route="E_N" depart="423.0" departLane="random" departSpeed="10" />
    <vehicle id="W_E_121" type="standard_car" route="W_E" depart="424.0" departLane="random" departSpeed="10" />
    <vehicle id="W_N_122" type="standard_car" route="W_N" depart="427.0" departLane="random" departSpeed="10" />
    <vehicle id="S_N_123" type="standard_car" route="S_N" depart="430.0" departLane="random" departSpeed="10" />
    <vehicle id="W_E_124" type="standard_car" route="W_E" depart="431.0" departLane="random" departSpeed="10" />
    <vehicle id="S_N_125" type="standard_car" route="S_N" depart="432.0" departLane="random" departSpeed="10" />
    <vehicle id="S_N_126" type="standard_car" route="S_N" depart="434.0" departLane="random" departSpeed="10" />
    <vehicle id="S_N_127" type="standard_car" route="S_N" depart="434.0" departLane="random" departSpeed="10" />
    <vehicle id="S_W_128" type="standard_car" route="S_W" depart="437.0" departLane="random" departSpeed="10" />
    <vehicle id="N_S_129" type="standard_car" route="N_S" depart="437.0" departLane="random" departSpeed="10" />
    <vehicle id="N_S_130" type="standard_car" route="N_S" depart="438.0" departLane="random" departSpeed="10" />
    <vehicle id="S_W_131" type="standard_car" route="S_W" depart="440.0" departLane="random" departSpeed="10" />
    <vehicle id="W_S_132" type="standard_car" route="W_S" depart="445.0" departLane="random" departSpeed="10" />
    <vehicle id="E_W_133" type="standard_car" route="E_W" depart="445.0" departLane="random" departSpeed="10" />
    <vehicle id="W_E_134" type="standard_car" route="W_E" depart="446.0" departLane="random" departSpeed="10" />
    <vehicle id="E_W_135" type="standard_car" route="E_W" depart="448.0" departLane="random" departSpeed="10" />
    <vehicle id="N_S_136" type="standard_car" route="N_S" depart="449.0" departLane="random" departSpeed="10" />
    <vehicle id="N_S_137" type="standard_car" route="N_S" depart="449.0" departLane="random" departSpeed="10" />
    <vehicle id="N_S_138" type="standard_car" route="N_S" depart="450.0" departLane="random" departSpeed="10" />
    <vehicle id="S_N_139" type="standard_car" route="S_N" depart="451.0" departLane="random" departSpeed="10" />
    <vehicle id="W_E_140" type="standard_car" route="W_E" depart="451.0" departLane="random" departSpeed="10" />
    <vehicle id="S_N_141" type="standard_car" route="S_N" depart="456.0" departLane="random" departSpeed="10" />
    <vehicle id="W_E_142" type="standard_car" route="W_E" depart="457.0" departLane="random" departSpeed="10" />
    <vehicle id="N_S_143" type="standard_car" route="N_S" depart="461.0" departLane="random" departSpeed="10" />
    <vehicle id="E_W_144" type="standard_car" route="E_W" depart="461.0" departLane="random" departSpeed="10" />
    <vehicle id="N_S_145" type="standard_car" route="N_S" depart="465.0" departLane="random" departSpeed="10" />
    <vehicle id="N_E_146" type="standard_car" route="N_E" depart="467.0" departLane="random" departSpeed="10" />
    <vehicle id="E_W_147" type="standard_car" route="E_W" depart="468.0" departLane="random" departSpeed="10" />
    <vehicle id="W_S_148" type="standard_car" route="W_S" depart="469.0" departLane="random" departSpeed="10" />
    <vehicle id="S_N_149" type="standard_car" route="S_N" depart="469.0" departLane="random" departSpeed="10" />
    <vehicle id="S_W_150" type="standard_car" route="S_W" depart="470.0" departLane="random" departSpeed="10" />
    <vehicle id="E_N_151" type="standard_car" route="E_N" depart="476.0" departLane="random" departSpeed="10" />
    <vehicle id="W_E_152" type="standard_car" route="W_E" depart="478.0" departLane="random" departSpeed="10" />
    <vehicle id="W_E_153" type="standard_car" route="W_E" depart="479.0" departLane="random" departSpeed="10" />
    <vehicle id="W_E_154" type="standard_car" route="W_E" depart="485.0" departLane="random" departSpeed="10" />
    <vehicle id="N_S_155" type="standard_car" route="N_S" depart="486.0" departLane="random" departSpeed="10" />
    <vehicle id="E_W_156" type="standard_car" route="E_W" depart="488.0" departLane="random" departSpeed="10" />
    <vehicle id="N_S_157" type="standard_car" route="N_S" depart="489.0" departLane="random" departSpeed="10" />
    <vehicle id="W_E_158" type="standard_car" route="W_E" depart="489.0" departLane="random" departSpeed="10" />
    <vehicle id="W_E_159" type="standard_car" route="W_E" depart="497.0" departLane="random" departSpeed="10" />
    <vehicle id="W_E_160" type="standard_car" route="W_E" depart="497.0" departLane="random" departSpeed="10" />
    <vehicle id="W_E_161" type="standard_car" route="W_E" depart="497.0" departLane="random" departSpeed="10" />
    <vehicle id="N_S_162" type="standard_car" route="N_S" depart="499.0" departLane="random" departSpeed="10" />
    <vehicle id="W_E_163" type="standard_car" route="W_E" depart="500.0" departLane="random" departSpeed="10" />
    <vehicle id="S_N_164" type="standard_car" route="S_N" depart="500.0" departLane="random" departSpeed="10" />
    <vehicle id="S_N_165" type="standard_car" route="S_N" depart="503.0" departLane="random" departSpeed="10" />
    <vehicle id="N_S_166" type="standard_car" route="N_S" depart="504.0" departLane="random" departSpeed="10" />
    <vehicle id="W_E_167" type="standard_car" route="W_E" depart="507.0" departLane="random" departSpeed="10" />
    <vehicle id="S_N_168" type="standard_car" route="S_N" depart="508.0" departLane="random" departSpeed="10" />
    <vehicle id="W_E_169" type="standard_car" route="W_E" depart="509.0" departLane="random" departSpeed="10" />
    <vehicle id="E_W_170" type="standard_car" route="E_W" depart="510.0" departLane="random" departSpeed="10" />
    <vehicle id="S_N_171" type="standard_car" route="S_N" depart="512.0" departLane="random" departSpeed="10" />
    <vehicle id="E_N_172" type="standard_car" route="E_N" depart="513.0" departLane="random" departSpeed="10" />
    <vehicle id="S_N_173" type="standard_car" route="S_N" depart="514.0" departLane="random" departSpeed="10" />
    <vehicle id="E_W_174" type="standard_car" route="E_W" depart="518.0" departLane="random" departSpeed="10" />
    <vehicle id="S_N_175" type="standard_car" route="S_N" depart="521.0" departLane="random" departSpeed="10" />
    <vehicle id="S_N_176" type="standard_car" route="S_N" depart="526.0" departLane="random" departSpeed="10" />
    <vehicle id="W_E_177" type="standard_car" route="W_E" depart="528.0" departLane="random" departSpeed="10" />
    <vehicle id="N_S_178" type="standard_car" route="N_S" depart="529.0" departLane="random" departSpeed="10" />
    <vehicle id="S_E_179" type="standard_car" route="S_E" depart="529.0" departLane="random" departSpeed="10" />
    <vehicle id="N_S_180" type="standard_car" route="N_S" depart="529.0" departLane="random" departSpeed="10" />
    <vehicle id="W_E_181" type="standard_car" route="W_E" depart="531.0" departLane="random" departSpeed="10" />
    <vehicle id="E_W_182" type="standard_car" route="E_W" depart="531.0" departLane="random" departSpeed="10" />
    <vehicle id="W_E_183" type="standard_car" route="W_E" depart="534.0" departLane="random" departSpeed="10" />
    <vehicle id="N_S_184" type="standard_car" route="N_S" depart="534.0" departLane="random" departSpeed="10" />
    <vehicle id="N_S_185" type="standard_car" route="N_S" depart="536.0" departLane="random" departSpeed="10" />
    <vehicle id="N_W_186" type="standard_car" route="N_W" depart="536.0" departLane="random" departSpeed="10" />
    <vehicle id="S_N_187" type="standard_car" route="S_N" depart="537.0" departLane="random" departSpeed="10" />
    <vehicle id="S_N_188" type="standard_car" route="S_N" depart="538.0" departLane="random" departSpeed="10" />
    <vehicle id="W_E_189" type="standard_car" route="W_E" depart="538.0" departLane="random" departSpeed="10" />
    <vehicle id="W_E_190" type="standard_car" route="W_E" depart="544.0" departLane="random" departSpeed="10" />
    <vehicle id="N_S_191" type="standard_car" route="N_S" depart="547.0" departLane="random" departSpeed="10" />
    <vehicle id="S_N_192" type="standard_car" route="S_N" depart="548.0" departLane="random" departSpeed="10" />
    <vehicle id="S_N_193" type="standard_car" route="S_N" depart="548.0" departLane="random" departSpeed="10" />
    <vehicle id="N_S_194" type="standard_car" route="N_S" depart="549.0" departLane="random" departSpeed="10" />
    <vehicle id="S_N_195" type="standard_car" route="S_N" depart="550.0" departLane="random" departSpeed="10" />
    <vehicle id="S_E_196" type="standard_car" route="S_E" depart="550.0" departLane="random" departSpeed="10" />
    <vehicle id="W_E_197" type="standard_car" route="W_E" depart="552.0" departLane="random" departSpeed="10" />
    <vehicle id="S_N_198" type="standard_car" route="S_N" depart="552.0" departLane="random" departSpeed="10" />
    <vehicle id="N_S_199" type="standard_car" route="N_S" depart="552.0" departLane="random" departSpeed="10" />
    <vehicle id="N_E_200" type="standard_car" route="N_E" depart="555.0" departLane="random" departSpeed="10" />
    <vehicle id="W_N_201" type="standard_car" route="W_N" depart="556.0" departLane="random" departSpeed="10" />
    <vehicle id="S_W_202" type="standard_car" route="S_W" depart="558.0" departLane="random" departSpeed="10" />
    <vehicle id="W_N_203" type="standard_car" route="W_N" depart="563.0" departLane="random" departSpeed="10" />
    <vehicle id="E_W_204" type="standard_car" route="E_W" depart="563.0" departLane="random" departSpeed="10" />
    <vehicle id="N_S_205" type="standard_car" route="N_S" depart="568.0" departLane="random" departSpeed="10" />
    <vehicle id="W_E_206" type="standard_car" route="W_E" depart="568.0" departLane="random" departSpeed="10" />
    <vehicle id="S_N_207" type="standard_car" route="S_N" depart="570.0" departLane="random" departSpeed="10" />
    <vehicle id="N_S_208" type="standard_car" route="N_S" depart="570.0" departLane="random" departSpeed="10" />
    <vehicle id="S_N_209" type="standard_car" route="S_N" depart="572.0" departLane="random" departSpeed="10" />
    <vehicle id="N_E_210" type="standard_car" route="N_E" depart="572.0" departLane="random" departSpeed="10" />
    <vehicle id="N_S_211" type="standard_car" route="N_S" depart="573.0" departLane="random" departSpeed="10" />
    <vehicle id="N_S_212" type="standard_car" route="N_S" depart="578.0" departLane="random" departSpeed="10" />
    <vehicle id="N_S_213" type="standard_car" route="N_S" depart="579.0" departLane="random" departSpeed="10" />
    <vehicle id="N_S_214" type="standard_car" route="N_S" depart="579.0" departLane="random" departSpeed="10" />
    <vehicle id="E_W_215" type="standard_car" route="E_W" depart="581.0" departLane="random" departSpeed="10" />
    <vehicle id="N_S_216" type="standard_car" route="N_S" depart="583.0" departLane="random" departSpeed="10" />
    <vehicle id="N_E_217" type="standard_car" route="N_E" depart="589.0" departLane="random" departSpeed="10" />
    <vehicle id="N_E_218" type="standard_car" route="N_E" depart="594.0" departLane="random" departSpeed="10" />
    <vehicle id="W_N_219" type="standard_car" route="W_N" depart="596.0" departLane="random" departSpeed="10" />
    <vehicle id="E_W_220" type="standard_car" route="E_W" depart="598.0" departLane="random" departSpeed="10" />
    <vehicle id="N_S_221" type="standard_car" route="N_S" depart="602.0" departLane="random" departSpeed="10" />
    <vehicle id="W_E_222" type="standard_car" route="W_E" depart="606.0" departLane="random" departSpeed="10" />
    <vehicle id="N_S_223" type="standard_car" route="N_S" depart="606.0" departLane="random" departSpeed="10" />
    <vehicle id="N_W_224" type="standard_car" route="N_W" depart="606.0" departLane="random" departSpeed="10" />
    <vehicle id="N_S_225" type="standard_car" route="N_S" depart="607.0" departLane="random" departSpeed="10" />
    <vehicle id="S_N_226" type="standard_car" route="S_N" depart="607.0" departLane="random" departSpeed="10" />
    <vehicle id="W_E_227" type="standard_car" route="W_E" depart="607.0" departLane="random" departSpeed="10" />
    <vehicle id="N_S_228" type="standard_car" route="N_S" depart="609.0" departLane="random" departSpeed="10" />
    <vehicle id="E_W_229" type="standard_car" route="E_W" depart="610.0" departLane="random" departSpeed="10" />
    <vehicle id="E_W_230" type="standard_car" route="E_W" depart="611.0" departLane="random" departSpeed="10" />
    <vehicle id="S_N_231" type="standard_car" route="S_N" depart="612.0" departLane="random" departSpeed="10" />
    <vehicle id="S_N_232" type="standard_car" route="S_N" depart="612.0" departLane="random" departSpeed="10" />
    <vehicle id="S_N_233" type="standard_car" route="S_N" depart="621.0" departLane="random" departSpeed="10" />
    <vehicle id="N_W_234" type="standard_car" route="N_W" depart="621.0" departLane="random" departSpeed="10" />
    <vehicle id="S_N_235" type="standard_car" route="S_N" depart="622.0" departLane="random" departSpeed="10" />
    <vehicle id="S_N_236" type="standard_car" route="S_N" depart="623.0" departLane="random" departSpeed="10" />
    <vehicle id="S_N_237" type="standard_car" route="S_N" depart="624.0" departLane="random" departSpeed="10" />
    <vehicle id="S_N_238" type="standard_car" route="S_N" depart="624.0" departLane="random" departSpeed="10" />
    <vehicle id="W_N_239" type="standard_car" route="W_N" depart="626.0" departLane="random" departSpeed="10" />
    <vehicle id="W_E_240" type="standard_car" route="W_E" depart="626.0" departLane="random" departSpeed="10" />
    <vehicle id="S_N_241" type="standard_car" route="S_N" depart="628.0" departLane="random" departSpeed="10" />
    <vehicle id="E_W_242" type="standard_car" route="E_W" depart="630.0" departLane="random" departSpeed="10" />
    <vehicle id="E_S_243" type="standard_car" route="E_S" depart="633.0" departLane="random" departSpeed="10" />
    <vehicle id="E_W_244" type="standard_car" route="E_W" depart="637.0" departLane="random" departSpeed="10" />
    <vehicle id="N_W_245" type="standard_car" route="N_W" depart="638.0" departLane="random" departSpeed="10" />
    <vehicle id="E_W_246" type="standard_car" route="E_W" depart="639.0" departLane="random" departSpeed="10" />
    <vehicle id="S_N_247" type="standard_car" route="S_N" depart="642.0" departLane="random" departSpeed="10" />
    <vehicle id="W_E_248" type="standard_car" route="W_E" depart="642.0" departLane="random" departSpeed="10" />
    <vehicle id="N_S_249" type="standard_car" route="N_S" depart="644.0" departLane="random" departSpeed="10" />
    <vehicle id="N_W_250" type="standard_car" route="N_W" depart="644.0" departLane="random" departSpeed="10" />
    <vehicle id="E_W_251" type="standard_car" route="E_W" depart="646.0" departLane="random" departSpeed="10" />
    <vehicle id="N_W_252" type="standard_car" route="N_W" depart="646.0" departLane="random" departSpeed="10" />
    <vehicle id="N_S_253" type="standard_car" route="N_S" depart="647.0" departLane="random" departSpeed="10" />
    <vehicle id="W_E_254" type="standard_car" route="W_E" depart="647.0" departLane="random" departSpeed="10" />
    <vehicle id="W_E_255" type="standard_car" route="W_E" depart="647.0" departLane="random" departSpeed="10" />
    <vehicle id="E_W_256" type="standard_car" route="E_W" depart="648.0" departLane="random" departSpeed="10" />
    <vehicle id="S_N_257" type="standard_car" route="S_N" depart="649.0" departLane="random" departSpeed="10" />
    <vehicle id="N_S_258" type="standard_car" route="N_S" depart="650.0" departLane="random" departSpeed="10" />
    <vehicle id="E_W_259" type="standard_car" route="E_W" depart="650.0" departLane="random" departSpeed="10" />