
<additional xmlns:xsi="http://www.w3.org/2001/XMLSchema-instance" xsi:noNamespaceSchemaLocation="http://sumo.dlr.de/xsd/additional_file.xsd">
    <tlLogic id="TL" type="static" programID="new0" offset="0">
        <phase duration="100" state="GGGrrrrrrrrrrrGGGrrrrrrrrrrr"/>
        <phase duration="4"  state="yyyrrrrrrrrrrryyyrrrrrrrrrrr"/>
        <phase duration="100" state="rrrGGGGGrrrrrrrrrGGGGGrrrrrr"/>
        <phase duration="4"  state="rrryyyyyrrrrrrrrryyyyyrrrrrr"/>
		<phase duration="100" state="rrrrrrrGGGGrrrrrrrrrrGGGGrrr"/>
        <phase duration="4"  state="rrrrrrryyyyrrrrrrrrrryyyyrrr"/>
        <phase duration="100"  state="GrrrrrrrrrrGGGGrrrrrrrrrrGGG"/>
        <phase duration="4"  state="yrrrrrrrrrryyyyrrrrrrrrrryyy"/>
		<phase duration="100" state="GGGGGGGGrrrrrrrrrrrrrrrrrrrr"/>
        <phase duration="4"  state="yyyyyyyyrrrrrrrrrrrrrrrrrrrr"/>
        <phase duration="100" state="rrrrrrrGGGGGGGGrrrrrrrrrrrrr"/>
        <phase duration="4"  state="rrrrrrryyyyyyyyrrrrrrrrrrrrr"/>
        <phase duration="100" state="rrrrrrrrrrrrrrGGGGGGGGrrrrrr"/>
        <phase duration="4"  state="rrrrrrrrrrrrrryyyyyyyyrrrrrr"/>
        <phase duration="100" state="GrrrrrrrrrrrrrrrrrrrrGGGGGGG"/>
        <phase duration="4"  state="yrrrrrrrrrrrrrrrrrrrryyyyyyy"/>
    </tlLogic>
</additional>
